<?xml version="1.0" encoding="UTF-8"?>

<!-- generated on Wed May 29 14:12:09 2019 by Eclipse SUMO duarouter Version 1.0.1
<configuration xmlns:xsi="http://www.w3.org/2001/XMLSchema-instance" xsi:noNamespaceSchemaLocation="http://sumo.dlr.de/xsd/duarouterConfiguration.xsd">

    <input>
        <net-file value="/home/memedi/Desktop/c2x-man/manhattan.net.xml"/>
        <additional-files value="/home/memedi/Desktop/c2x-man/manhattan.add.xml"/>
        <route-files value="/home/memedi/Desktop/c2x-man/manhattan.trips.xml"/>
    </input>

    <output>
        <output-file value="/home/memedi/Desktop/c2x-man/manhattan.rou.xml"/>
        <alternatives-output value="/home/memedi/Desktop/c2x-man/manhattan.rou.alt.xml"/>
    </output>

</configuration>
-->

<routes xmlns:xsi="http://www.w3.org/2001/XMLSchema-instance" xsi:noNamespaceSchemaLocation="http://sumo.dlr.de/xsd/routes_file.xsd">
    <vehicle id="0" depart="0.00" departLane="best">
        <route edges="top0A5 A5A4 A4B4 B4C4 C4D4 D4D3 D3D2 D2D1 D1D0 D0bottom3"/>
    </vehicle>
    <vehicle id="1" depart="0.01" departLane="best">
        <route edges=" B2B3 B3B4 B4B5 B5C5 C5C4 C4C3 C3C2 C2C1 C1C0 C0bottom2"/>
    </vehicle>
    <!--
    <vehicle id="2" depart="0.02" departLane="best">
        <route edges="F4E4 E4E3 E3D3 D3C3 C3B3 B3A3 A3A4 A4B4 B4C4 C4D4 D4E4 E4F4 F4F3 F3F2 F2F1 F1F0 F0right0"/>
    </vehicle>
    <vehicle id="3" depart="0.03" departLane="best">
        <route edges="bottom0A0 A0A1 A1A2 A2A3 A3B3 B3C3 C3D3 D3E3 E3F3 F3F4 F4E4 E4D4 D4C4 C4B4"/>
    </vehicle>
    <vehicle id="4" depart="0.04" departLane="best">
        <route edges="E0F0 F0F1 F1E1 E1D1 D1C1 C1B1 B1A1 A1A2 A2A3 A3A4 A4A5 A5B5 B5B4 B4B3 B3B2 B2B1"/>
    </vehicle>
    <vehicle id="5" depart="0.05" departLane="best">
        <route edges="E4D4 D4D3 D3D2 D2D1 D1D0 D0C0 C0B0 B0B1 B1A1 A1A2 A2A3 A3A4 A4A5"/>
    </vehicle>
-->
</routes>
